<?xml version="1.0" encoding="UTF-8"?>
<vehicleDefinitions xmlns="http://www.matsim.org/files/dtd" xmlns:xsi="http://www.w3.org/2001/XMLSchema-instance" xsi:schemaLocation="http://www.matsim.org/files/dtd http://www.matsim.org/files/dtd/vehicleDefinitions_v1.0.xsd">
<vehicleType id="0">
   <description>small vehicle--avg_power_kW=15.3--mode=road</description>
   <capacity>
      <seats persons="10"/>
      <standingRoom persons="20"/>
   </capacity>
   <length meter="12"/>
</vehicleType>
<vehicle id="0" type="0"/>
<vehicle id="1" type="0"/>
<vehicle id="2" type="0"/>
<vehicle id="3" type="0"/>
</vehicleDefinitions>
