<?xml version="1.0" encoding="utf-8"?>
<!DOCTYPE network SYSTEM "http://matsim.org/files/dtd/network_v1.dtd">
<network>
<nodes>
<node x="0.0" y="0.0" id="1" />
<node x="1000.0" y="0.0" id="2" />
<node x="2000.0" y="0.0" id="3" />
<node x="20000.0" y="0.0" id="4" />
<node x="21000.0" y="0.0" id="5" />
<node x="22000.0" y="0.0" id="6" />
</nodes>

<links capperiod="10:00:00">
<link id="1-2" modes="road" permlanes="1" capacity="2000" freespeed="22" length="1000" to="2" from="1"/>
<link id="2-3" modes="road" permlanes="1" capacity="2000" freespeed="22" length="1000" to="3" from="2"/>
<link id="3-4" modes="road" permlanes="1" capacity="2000" freespeed="22" length="18000" to="4" from="3"/>
<link id="4-5" modes="road" permlanes="1" capacity="2000" freespeed="22" length="1000" to="5" from="4"/>
<link id="5-6" modes="road" permlanes="1" capacity="2000" freespeed="22" length="1000" to="6" from="5"/>
</links>
</network>
